Circuit: * C:\repos\CCM\CCMCircuits\CCM_0009_Precision_Current_Driver\revB\mockup.asc

Direct Newton iteration failed to find .op point.  (Use ".option noopiter" to skip.)
Starting Gmin stepping
Gmin = 10
Gmin = 1.07374
vernier = 0.5
vernier = 0.25
vernier = 0.125
vernier = 0.0625
vernier = 0.03125
Gmin = 1.0412
vernier = 0.015625
vernier = 0.0078125
Gmin = 1.0132
vernier = 0.00390625
vernier = 0.00195313
Gmin = 1.00827
vernier = 0.00260417
vernier = 0.00130208
Gmin = 1.00515
vernier = 0.000651042
vernier = 0.000868055
vernier = 0.000434028
Gmin = 1.00434
vernier = 0.000578703
vernier = 0.000434027
Gmin = 1.00339
Gmin = 0
Gmin stepping failed

Starting source stepping with srcstepmethod=0
Source Step = 3.0303%
Source Step = 33.3333%
Source Step = 63.6364%
Source Step = 93.9394%
Source stepping succeeded in finding the operating point.


Date: Tue Dec 10 13:57:56 2019
Total elapsed time: 0.493 seconds.

tnom = 27
temp = 27
method = modified trap
totiter = 9032
traniter = 4177
tranpoints = 1819
accept = 1595
rejected = 224
matrix size = 30
fillins = 52
solver = Normal
Thread vector: 15.1/10.6[2] 4.2/3.0[2] 3.4/5.2[1] 0.3/0.9[1]  2592/500
Matrix Compiler1: 4.31 KB object code size  1.2/0.6/[0.3]
Matrix Compiler2: 3.96 KB object code size  0.5/0.6/[0.5]


