Circuit: * C:\Users\nfitch\Desktop\comparator_as_monostable.asc

Direct Newton iteration failed to find .op point.  (Use ".option noopiter" to skip.)
Starting Gmin stepping
Gmin = 10
Gmin = 1.07374
Gmin = 0.115292
Gmin = 0.0123794
Gmin = 0.00132923
Gmin = 0.000142725
Gmin = 1.5325e-005
Gmin = 1.6455e-006
Gmin = 1.76685e-007
Gmin = 1.89714e-008
Gmin = 2.03704e-009
Gmin = 2.18725e-010
Gmin = 2.34854e-011
Gmin = 2.52173e-012
Gmin = 2.70769e-013
Gmin = 0
Gmin stepping succeeded in finding the operating point.


Date: Tue Jul 30 12:24:23 2019
Total elapsed time: 0.266 seconds.

tnom = 27
temp = 27
method = modified trap
totiter = 7779
traniter = 7347
tranpoints = 2359
accept = 1988
rejected = 371
matrix size = 19
fillins = 4
solver = Normal
Matrix Compiler1: 1.09 KB object code size  0.5/0.2/[0.2]
Matrix Compiler2: off  [0.2]/0.3/0.3


