Circuit: * C:\repos\CCM\CCMCircuits\CCM_0020_Floating_Leakage_Monitor\models\micropower_VtoF\LTC1440 VtoF.asc

Direct Newton iteration for .op point succeeded.

Date: Mon Feb 10 16:08:38 2020
Total elapsed time: 19.945 seconds.

tnom = 27
temp = 27
method = modified trap
totiter = 478147
traniter = 478110
tranpoints = 134713
accept = 94407
rejected = 40306
matrix size = 53
fillins = 41
solver = Normal
Thread vector: 28.6/12.6[5] 7.7/3.7[5] 3.1/2.0[5] 0.3/1.4[1]  2592/500
Matrix Compiler1: 5.88 KB object code size  2.4/1.0/[0.7]
Matrix Compiler2: 5.72 KB object code size  0.7/1.1/[0.5]


