Circuit: * C:\Users\nfitch\Desktop\LTC1440 VtoF.asc

Direct Newton iteration for .op point succeeded.

Date: Thu Aug 01 12:54:36 2019
Total elapsed time: 6.636 seconds.

tnom = 27
temp = 27
method = modified trap
totiter = 212408
traniter = 212371
tranpoints = 58716
accept = 41418
rejected = 17298
matrix size = 53
fillins = 41
solver = Normal
Thread vector: 27.8/12.5[5] 7.9/4.1[5] 3.1/2.3[4] 0.4/1.4[1]  2592/500
Matrix Compiler1: 5.88 KB object code size  2.0/0.7/[0.5]
Matrix Compiler2: 5.72 KB object code size  0.7/0.9/[0.6]


